Version 4
SHEET 1 1052 680
WIRE -288 -176 -320 -176
WIRE 80 -176 0 -176
WIRE -320 -112 -320 -176
WIRE 80 -112 80 -176
WIRE 560 -64 352 -64
WIRE -320 0 -320 -32
WIRE 80 48 80 -32
WIRE 176 48 80 48
WIRE 80 96 80 48
WIRE -240 144 -320 144
WIRE -160 144 -240 144
WIRE 16 144 -80 144
WIRE -320 176 -320 144
WIRE -320 288 -320 256
WIRE 80 288 80 192
FLAG 80 288 0
FLAG -320 0 0
FLAG -288 -176 Vcc
FLAG -320 288 0
FLAG 0 -176 Vcc
FLAG -240 144 Vin
FLAG 176 48 Vout
SYMBOL npn 16 96 R0
SYMATTR InstName Q1
SYMATTR Value 2N2222
SYMBOL res -176 160 R270
WINDOW 0 32 56 VTop 2
WINDOW 3 0 56 VBottom 2
SYMATTR InstName Rb
SYMATTR Value 470
SYMBOL res 64 -128 R0
SYMATTR InstName Rc
SYMATTR Value 50
SYMBOL voltage -320 -128 R0
WINDOW 123 0 0 Left 0
WINDOW 39 0 0 Left 0
SYMATTR InstName V1
SYMATTR Value 9
SYMBOL voltage -320 160 R0
WINDOW 3 -438 54 Left 2
WINDOW 123 0 0 Left 0
WINDOW 39 0 0 Left 0
SYMATTR Value PULSE(0 5 500m 1n 1n 500m 1s)
SYMATTR InstName Vi
TEXT 360 -40 Left 2 !.tran 0 2s 0 0.2m
TEXT 360 -80 Left 2 ;Analisis
